YY3
  CCTOOLS-1004241128

 70 73  0  0  0  0  0  0  0  0999 V2000
   -7.4020   -0.7520    2.4950 C   0  0  0  0  0
   -7.8380   -1.1570    1.1530 N   0  0  0  0  0
   -9.2800   -0.9370    0.9790 C   0  0  0  0  0
   -7.0700   -0.4560    0.1150 C   0  0  0  0  0
   -5.6080   -0.9030    0.1730 C   0  0  0  0  0
   -4.8400   -0.2020   -0.8650 N   0  0  0  0  0
   -5.2770   -0.6080   -2.2070 C   0  0  0  0  0
   -2.9490   -1.6990   -0.7450 C   0  0  0  0  0
   -1.5880   -1.9060   -0.5820 C   0  0  0  0  0
   -1.0830   -3.1680   -0.6280 O   0  0  0  0  0
   -2.0120   -4.2320   -0.8470 C   0  0  0  0  0
   -3.4650   -0.4120   -0.6990 C   0  0  0  0  0
   -2.6140    0.6730   -0.4890 C   0  0  0  0  0
   -3.1350    1.9740   -0.4420 N   0  0  0  0  0
   -2.5920    2.8870    0.3870 C   0  0  0  0  0
   -1.5980    2.6100    1.0310 O   0  0  0  0  0
   -3.2010    4.2200    0.5120 C   0  0  0  0  0
   -2.6650    5.1220    1.3300 C   0  0  0  0  0
   -1.2530    0.4640   -0.3260 C   0  0  0  0  0
   -0.7380   -0.8230   -0.3720 C   0  0  0  0  0
    0.6390   -1.0350   -0.2070 N   0  0  0  0  0
    1.5360   -0.0240   -0.5080 C   0  0  0  0  0
    2.8190   -0.1980   -0.2350 N   0  0  0  0  0
    1.0870    1.0910   -1.0690 N   0  0  0  0  0
    1.9130    2.0810   -1.3730 C   0  0  0  0  0
    3.2610    1.9460   -1.1010 C   0  0  0  0  0
    3.7070    0.7560   -0.5140 C   0  0  0  0  0
    5.1400    0.5610   -0.2080 C   0  0  0  0  0
    5.7560   -0.6310    0.3990 C   0  0  0  0  0
    5.2610   -1.8540    0.8480 C   0  0  0  0  0
    6.1170   -2.7790    1.3780 C   0  0  0  0  0
    7.4750   -2.5090    1.4730 C   0  0  0  0  0
    7.9830   -1.3060    1.0360 C   0  0  0  0  0
    7.1300   -0.3510    0.4920 C   0  0  0  0  0
    7.3290    0.9130   -0.0200 N   0  0  0  0  0
    8.6270    1.5870   -0.1090 C   0  0  0  0  0
    6.1470    1.4440   -0.4380 C   0  0  0  0  0
   -7.5490    0.3210    2.6170 H   0  0  0  0  0
   -7.9860   -1.2860    3.2440 H   0  0  0  0  0
   -6.3450   -0.9900    2.6210 H   0  0  0  0  0
   -9.4960    0.1290    1.0460 H   0  0  0  0  0
   -9.5900   -1.3110    0.0030 H   0  0  0  0  0
   -9.8250   -1.4670    1.7600 H   0  0  0  0  0
   -7.4840   -0.6920   -0.8650 H   0  0  0  0  0
   -7.1280    0.6190    0.2840 H   0  0  0  0  0
   -5.1940   -0.6670    1.1530 H   0  0  0  0  0
   -5.5500   -1.9790    0.0040 H   0  0  0  0  0
   -6.3330   -0.3690   -2.3330 H   0  0  0  0  0
   -4.6920   -0.0740   -2.9560 H   0  0  0  0  0
   -5.1300   -1.6810   -2.3290 H   0  0  0  0  0
   -3.6070   -2.5380   -0.9130 H   0  0  0  0  0
   -2.7500   -4.2400   -0.0450 H   0  0  0  0  0
   -2.5160   -4.0830   -1.8020 H   0  0  0  0  0
   -1.4800   -5.1830   -0.8610 H   0  0  0  0  0
   -3.8860    2.2160   -1.0060 H   0  0  0  0  0
   -4.0830    4.4670   -0.0600 H   0  0  0  0  0
   -1.7830    4.8750    1.9030 H   0  0  0  0  0
   -3.1120    6.1010    1.4230 H   0  0  0  0  0
   -0.5930    1.3040   -0.1630 H   0  0  0  0  0
    0.9630   -1.8890    0.1190 H   0  0  0  0  0
    1.5360    2.9840   -1.8290 H   0  0  0  0  0
    3.9540    2.7390   -1.3390 H   0  0  0  0  0
    4.2050   -2.0700    0.7780 H   0  0  0  0  0
    5.7330   -3.7270    1.7260 H   0  0  0  0  0
    8.1390   -3.2490    1.8950 H   0  0  0  0  0
    9.0420   -1.1050    1.1140 H   0  0  0  0  0
    9.0930    1.3520   -1.0650 H   0  0  0  0  0
    8.4830    2.6640   -0.0290 H   0  0  0  0  0
    9.2690    1.2440    0.7020 H   0  0  0  0  0
    6.0270    2.4210   -0.8830 H   0  0  0  0  0
  1  2  1  0  0  0
  1 38  1  0  0  0
  1 39  1  0  0  0
  1 40  1  0  0  0
  2  4  1  0  0  0
  2  3  1  0  0  0
  3 41  1  0  0  0
  3 42  1  0  0  0
  3 43  1  0  0  0
  4 44  1  0  0  0
  4 45  1  0  0  0
  5  4  1  0  0  0
  5  6  1  0  0  0
  5 46  1  0  0  0
  5 47  1  0  0  0
  6 12  1  0  0  0
  7  6  1  0  0  0
  7 48  1  0  0  0
  7 49  1  0  0  0
  7 50  1  0  0  0
  8 12  2  0  0  0
  8  9  1  0  0  0
  8 51  1  0  0  0
  9 20  2  0  0  0
 10  9  1  0  0  0
 11 10  1  0  0  0
 11 52  1  0  0  0
 11 53  1  0  0  0
 11 54  1  0  0  0
 12 13  1  0  0  0
 13 14  1  0  0  0
 13 19  2  0  0  0
 14 15  1  0  0  0
 14 55  1  0  0  0
 15 17  1  0  0  0
 15 16  2  0  0  0
 17 18  2  0  0  0
 17 56  1  0  0  0
 18 57  1  0  0  0
 18 58  1  0  0  0
 19 59  1  0  0  0
 20 19  1  0  0  0
 20 21  1  0  0  0
 21 22  1  0  0  0
 21 60  1  0  0  0
 22 23  2  0  0  0
 22 24  1  0  0  0
 23 27  1  0  0  0
 24 25  2  0  0  0
 25 26  1  0  0  0
 25 61  1  0  0  0
 26 62  1  0  0  0
 27 28  1  0  0  0
 27 26  2  0  0  0
 28 37  2  0  0  0
 29 28  1  0  0  0
 29 34  2  0  0  0
 30 29  1  0  0  0
 30 63  1  0  0  0
 31 30  2  0  0  0
 31 32  1  0  0  0
 31 64  1  0  0  0
 32 33  2  0  0  0
 32 65  1  0  0  0
 33 34  1  0  0  0
 33 66  1  0  0  0
 34 35  1  0  0  0
 35 36  1  0  0  0
 36 67  1  0  0  0
 36 68  1  0  0  0
 36 69  1  0  0  0
 37 35  1  0  0  0
 37 70  1  0  0  0
M  END
$$$$
